components/Menapace_Feeder_VLN_Node.Txt

LINE-GROUND and LINE-LINE VOLTAGES BY BUS & NODE

Bus       Node    VLN (kV)   Angle      pu     Base kV    Node-Node   VLL (kV)  Angle      pu

SOURCEBUS 1       9.2372 /_    0.0   0.99995    16.000        1-2     15.999 /_   30.0   0.99995
   -      2       9.2371 /_ -120.0   0.99995    16.000        2-3     15.999 /_  -90.0   0.99996
   -      3       9.2373 /_  120.0   0.99996    16.000        3-1     15.999 /_  150.0   0.99996
255258 .. 1       0.2288 /_  -29.9   0.99073     0.400        1-2    0.39624 /_    0.0   0.99061
   -      2      0.22847 /_ -150.0   0.98932     0.400        2-3    0.39659 /_ -119.9   0.99148
   -      3      0.22968 /_   90.0   0.99452     0.400        3-1    0.39699 /_  120.0   0.99247
126563 .. 1      0.22612 /_  -29.9   0.97913     0.400        1-2    0.39199 /_    0.0   0.97998
   -      2      0.22629 /_ -150.0   0.97986     0.400        2-3    0.39261 /_ -119.9   0.98153
   -      3      0.22734 /_   90.1   0.98441     0.400        3-1    0.39276 /_  120.0    0.9819
126858 .. 1      0.22671 /_  -30.0   0.98168     0.400        1-2    0.39308 /_    0.0   0.98269
   -      2      0.22697 /_ -150.1   0.98279     0.400        2-3    0.39378 /_ -119.9   0.98444
   -      3        0.228 /_   90.1   0.98727     0.400        3-1    0.39384 /_  120.0    0.9846
130108 .. 1        0.227 /_  -30.0   0.98295     0.400        1-2    0.39356 /_    0.0   0.98389
   -      2      0.22722 /_ -150.1   0.98389     0.400        2-3     0.3942 /_ -119.9   0.98551
   -      3      0.22824 /_   90.0   0.98833     0.400        3-1     0.3943 /_  119.9   0.98576
126468 .. 1      0.22669 /_  -30.0   0.98162     0.400        1-2    0.39298 /_    0.0   0.98246
   -      2      0.22686 /_ -150.1   0.98234     0.400        2-3     0.3936 /_ -119.9     0.984
   -      3      0.22791 /_   90.1   0.98689     0.400        3-1    0.39375 /_  120.0   0.98438
109211 .. 1      0.22014 /_  -29.6   0.95324     0.400        1-2    0.37407 /_   -0.6   0.93518
   -      2      0.21052 /_ -150.1   0.91157     0.400        2-3    0.37576 /_ -118.4   0.93939
   -      3      0.22585 /_   91.0   0.97798     0.400        3-1    0.38739 /_  120.3   0.96847
111795 .. 1      0.22079 /_  -29.6   0.95605     0.400        1-2     0.3752 /_   -0.6   0.93799
   -      2      0.21117 /_ -150.2   0.91437     0.400        2-3    0.37669 /_ -118.4   0.94173
   -      3      0.22634 /_   91.0   0.98007     0.400        3-1    0.38841 /_  120.3   0.97102
126674 .. 1      0.21992 /_  -29.2   0.95229     0.400        1-2    0.37386 /_   -0.2   0.93466
   -      2      0.21055 /_ -149.8   0.91171     0.400        2-3    0.37551 /_ -118.1   0.93878
   -      3       0.2254 /_   91.3   0.97601     0.400        3-1    0.38672 /_  120.7   0.96681
116757 .. 1      0.21953 /_  -29.1   0.95058     0.400        1-2     0.3732 /_   -0.1   0.93301
   -      2      0.21019 /_ -149.7   0.91017     0.400        2-3    0.37489 /_ -118.0   0.93722
   -      3        0.225 /_   91.4   0.97429     0.400        3-1    0.38602 /_  120.7   0.96506
117766 .. 1      0.21964 /_  -29.3   0.95106     0.400        1-2    0.37334 /_   -0.3   0.93336
   -      2      0.21022 /_ -149.9   0.91026     0.400        2-3    0.37495 /_ -118.1   0.93737
   -      3      0.22513 /_   91.3   0.97484     0.400        3-1    0.38627 /_  120.6   0.96567
107756 .. 1      0.21822 /_  -29.1   0.94494     0.400        1-2    0.37092 /_   -0.1   0.92731
   -      2      0.20885 /_ -149.7   0.90434     0.400        2-3    0.37258 /_ -118.0   0.93144
   -      3      0.22371 /_   91.4   0.96871     0.400        3-1    0.38379 /_  120.7   0.95949
225875 .. 1      0.23078 /_  -30.0    0.9993     0.400        1-2    0.39967 /_    0.0   0.99917
   -      2      0.23073 /_ -150.0    0.9991     0.400        2-3    0.39971 /_ -120.0   0.99928
   -      3       0.2308 /_   90.0   0.99939     0.400        3-1    0.39973 /_  120.0   0.99934
107558 .. 1      0.23061 /_  -30.0   0.99855     0.400        1-2    0.39937 /_    0.0   0.99842
   -      2      0.23053 /_ -150.0   0.99824     0.400        2-3    0.39944 /_ -120.0    0.9986
   -      3       0.2307 /_   90.0   0.99896     0.400        3-1    0.39949 /_  120.0   0.99874
269172 .. 1      0.22705 /_  -30.0   0.98313     0.400        1-2    0.39359 /_    0.0   0.98398
   -      2      0.22721 /_ -150.1   0.98386     0.400        2-3     0.3942 /_ -119.9   0.98551
   -      3      0.22826 /_   90.0    0.9884     0.400        3-1    0.39436 /_  119.9    0.9859
134391 .. 1      0.22705 /_  -30.0   0.98313     0.400        1-2    0.39359 /_    0.0   0.98398
   -      2      0.22721 /_ -150.1   0.98386     0.400        2-3     0.3942 /_ -119.9   0.98551
   -      3      0.22826 /_   90.0    0.9884     0.400        3-1    0.39436 /_  119.9    0.9859
121635 .. 1       0.2288 /_  -29.9   0.99073     0.400        1-2    0.39624 /_    0.0   0.99061
   -      2      0.22847 /_ -150.0   0.98932     0.400        2-3    0.39659 /_ -119.9   0.99148
   -      3      0.22968 /_   90.0   0.99452     0.400        3-1    0.39699 /_  120.0   0.99247
123728 .. 1      0.22772 /_  -29.8   0.98607     0.400        1-2    0.39357 /_    0.0   0.98392
   -      2      0.22626 /_ -150.0   0.97974     0.400        2-3    0.39442 /_ -119.7   0.98605
   -      3      0.22958 /_   90.2   0.99411     0.400        3-1    0.39598 /_  120.1   0.98995
290164 .. 1      0.22562 /_  -29.7   0.97698     0.400        1-2    0.38802 /_   -0.2   0.97005
   -      2      0.22168 /_ -150.1   0.95991     0.400        2-3    0.38893 /_ -119.3   0.97232
   -      3      0.22851 /_   90.4   0.98949     0.400        3-1    0.39361 /_  120.1   0.98403
290163 .. 1      0.22518 /_  -29.7   0.97507     0.400        1-2    0.38693 /_   -0.2   0.96731
   -      2      0.22078 /_ -150.1   0.95598     0.400        2-3    0.38805 /_ -119.2   0.97012
   -      3      0.22847 /_   90.5   0.98933     0.400        3-1     0.3932 /_  120.2     0.983
290165 .. 1      0.22115 /_  -29.6    0.9576     0.400        1-2    0.37628 /_   -0.6    0.9407
   -      2      0.21198 /_ -150.2   0.91789     0.400        2-3    0.37755 /_ -118.5   0.94387
   -      3      0.22644 /_   90.9    0.9805     0.400        3-1    0.38866 /_  120.3   0.97164
122202 .. 1      0.22081 /_  -29.6   0.95615     0.400        1-2    0.37527 /_   -0.6   0.93818
   -      2      0.21122 /_ -150.2    0.9146     0.400        2-3    0.37674 /_ -118.4   0.94184
   -      3      0.22633 /_   91.0   0.98004     0.400        3-1    0.38841 /_  120.3   0.97102
122178 .. 1      0.22058 /_  -29.5   0.95515     0.400        1-2     0.3749 /_   -0.5   0.93725
   -      2      0.21103 /_ -150.1   0.91378     0.400        2-3    0.37639 /_ -118.3   0.94098
   -      3      0.22609 /_   91.1   0.97901     0.400        3-1    0.38798 /_  120.4   0.96996
123004 .. 1      0.21981 /_  -29.3    0.9518     0.400        1-2    0.37364 /_   -0.3   0.93409
   -      2      0.21038 /_ -149.9   0.91098     0.400        2-3    0.37524 /_ -118.1   0.93809
   -      3       0.2253 /_   91.3   0.97558     0.400        3-1    0.38657 /_  120.6   0.96642
123775 .. 1      0.21996 /_  -29.2   0.95244     0.400        1-2    0.37392 /_   -0.2   0.93481
   -      2      0.21058 /_ -149.8   0.91185     0.400        2-3    0.37557 /_ -118.1   0.93892
   -      3      0.22543 /_   91.3   0.97615     0.400        3-1    0.38678 /_  120.7   0.96696
114154 .. 1      0.21964 /_  -29.3   0.95106     0.400        1-2    0.37334 /_   -0.3   0.93336
   -      2      0.21022 /_ -149.9   0.91026     0.400        2-3    0.37495 /_ -118.1   0.93737
   -      3      0.22513 /_   91.3   0.97484     0.400        3-1    0.38627 /_  120.6   0.96567
121117 .. 1      0.22009 /_  -29.2   0.95303     0.400        1-2    0.37417 /_   -0.1   0.93543
   -      2      0.21074 /_ -149.7   0.91253     0.400        2-3    0.37583 /_ -118.0   0.93958
   -      3      0.22556 /_   91.4   0.97672     0.400        3-1      0.387 /_  120.7   0.96751
143324 .. 1      0.21992 /_  -29.2    0.9523     0.400        1-2    0.37387 /_   -0.2   0.93467
   -      2      0.21055 /_ -149.8   0.91172     0.400        2-3    0.37552 /_ -118.1   0.93879
   -      3       0.2254 /_   91.3   0.97602     0.400        3-1    0.38673 /_  120.7   0.96682
